$# LS-DYNA Keyword file created by LS-PrePost(R) V4.7.17 - 08Jul2020
$# Created on Jun-21-2022 (15:13:45)
*KEYWORD
*TITLE
$#                                                                         title

$
$$$$$$$$$$$$$$$$$$$$$$$$$$$$$$$$$$$$$$$$$$$$$$$$$$$$$$$$$$$$$$$$$$$$$$$$$$$$$$$$
$                              CONTROL OPTIONS                                 $
$$$$$$$$$$$$$$$$$$$$$$$$$$$$$$$$$$$$$$$$$$$$$$$$$$$$$$$$$$$$$$$$$$$$$$$$$$$$$$$$
$
*CONTROL_ENERGY
$#    hgen      rwen    slnten     rylen     irgen     
         2         2         2         2         2
*CONTROL_SHELL
$#  wrpang     esort     irnxx    istupd    theory       bwc     miter      proj
      20.0         1        -1         1         2         2         1         0
$# rotascl    intgrd    lamsht    cstyp6    thshel      
       1.0         0         0         1         0
$# psstupd   sidt4tu     cntco    itsflg    irquad    w-mode   stretch      icrq
         0         0         0         0         2       0.0       0.0         0
*CONTROL_TERMINATION
$#  endtim    endcyc     dtmin    endeng    endmas     nosol     
1.50000E-4         0       0.0       0.0       0.0         0
*CONTROL_TIMESTEP
$#  dtinit    tssfac      isdo    tslimt     dt2ms      lctm     erode     ms1st
       0.0       0.9         0       0.0       0.0         0         0         0
$#  dt2msf   dt2mslc     imscl    unused    unused     rmscl    unused      ihdo
       0.0         0         0                           0.0                   0
*DATABASE_BNDOUT
$#      dt    binary      lcur     ioopt     
2.50000E-7         0         0         1
*DATABASE_DEFGEO
$#      dt    binary      lcur     ioopt     
2.50000E-7         0         0         1
*DATABASE_DEFORC
$#      dt    binary      lcur     ioopt     
2.50000E-7         0         0         1
*DATABASE_GCEOUT
$#      dt    binary      lcur     ioopt     
2.50000E-7         0         0         1
*DATABASE_GLSTAT
$#      dt    binary      lcur     ioopt     
2.50000E-7         0         0         1
*DATABASE_JNTFORC
$#      dt    binary      lcur     ioopt     
2.50000E-7         0         0         1
*DATABASE_MATSUM
$#      dt    binary      lcur     ioopt     
5.00000E-6         0         0         1
*DATABASE_NCFORC
$#      dt    binary      lcur     ioopt     
2.50000E-7         0         0         1
*DATABASE_RBDOUT
$#      dt    binary      lcur     ioopt     
2.50000E-7         0         0         1
*DATABASE_RCFORC
$#      dt    binary      lcur     ioopt     
2.50000E-7         0         0         1
*DATABASE_RWFORC
$#      dt    binary      lcur     ioopt     
2.50000E-7         0         0         1
*DATABASE_SLEOUT
$#      dt    binary      lcur     ioopt     
2.50000E-7         0         0         1
*DATABASE_SPCFORC
$#      dt    binary      lcur     ioopt     
2.50000E-7         0         0         1
*DATABASE_SWFORC
$#      dt    binary      lcur     ioopt     
2.50000E-7         0         0         1
*DATABASE_BINARY_D3PLOT
$#      dt      lcdt      beam     npltc    psetid      
2.50000E-6         0         0         0         0
*DATABASE_BINARY_D3THDT
$#      dt      lcdt      beam     npltc    psetid      
2.50000E-7         0         0         0         0
$
$$$$$$$$$$$$$$$$$$$$$$$$$$$$$$$$$$$$$$$$$$$$$$$$$$$$$$$$$$$$$$$$$$$$$$$$$$$$$$$$
$                              DATABASE OPTIONS                                $
$$$$$$$$$$$$$$$$$$$$$$$$$$$$$$$$$$$$$$$$$$$$$$$$$$$$$$$$$$$$$$$$$$$$$$$$$$$$$$$$
$
*DATABASE_EXTENT_BINARY
$#   neiph     neips    maxint    strflg    sigflg    epsflg    rltflg    engflg
         0         0         3         1         1         1         1         1
$#  cmpflg    ieverp    beamip     dcomp      shge     stssz    n3thdt   ialemat
         0         0         4         1         1         1         2         1
*DATABASE_FORMAT
$#   iform   ibinary       
         0         0
*BOUNDARY_SPC_SET
$#    nsid       cid      dofx      dofy      dofz     dofrx     dofry     dofrz
         1         0         1         0         0         0         0         0
$
$$$$$$$$$$$$$$$$$$$$$$$$$$$$$$$$$$$$$$$$$$$$$$$$$$$$$$$$$$$$$$$$$$$$$$$$$$$$$$$$
$                              COORDINATE SYSTEMS                              $
$$$$$$$$$$$$$$$$$$$$$$$$$$$$$$$$$$$$$$$$$$$$$$$$$$$$$$$$$$$$$$$$$$$$$$$$$$$$$$$$
$
$
$
$$$$$$$$$$$$$$$$$$$$$$$$$$$$$$$$$$$$$$$$$$$$$$$$$$$$$$$$$$$$$$$$$$$$$$$$$$$$$$$$
$                               LOAD DEFINITIONS                               $
$$$$$$$$$$$$$$$$$$$$$$$$$$$$$$$$$$$$$$$$$$$$$$$$$$$$$$$$$$$$$$$$$$$$$$$$$$$$$$$$
$
$
$
$$$$$$$$$$$$$$$$$$$$$$$$$$$$$$$$$$$$$$$$$$$$$$$$$$$$$$$$$$$$$$$$$$$$$$$$$$$$$$$$
$                                RIGID BOUNDRIES                               $
$$$$$$$$$$$$$$$$$$$$$$$$$$$$$$$$$$$$$$$$$$$$$$$$$$$$$$$$$$$$$$$$$$$$$$$$$$$$$$$$
$
$
$
$$$$$$$$$$$$$$$$$$$$$$$$$$$$$$$$$$$$$$$$$$$$$$$$$$$$$$$$$$$$$$$$$$$$$$$$$$$$$$$$
$                             BOUNDARY DEFINITIONS                             $
$$$$$$$$$$$$$$$$$$$$$$$$$$$$$$$$$$$$$$$$$$$$$$$$$$$$$$$$$$$$$$$$$$$$$$$$$$$$$$$$
$
*SET_NODE_LIST
$#     sid       da1       da2       da3       da4    solver      
         1       0.0       0.0       0.0       0.0MECH
$#    nid1      nid2      nid3      nid4      nid5      nid6      nid7      nid8
         1         2        18        19        20        21        22        23
        24        25        26        56       117       167       168       169
       170       171       172       173       174       175         0         0
*BOUNDARY_SPC_SET
$#    nsid       cid      dofx      dofy      dofz     dofrx     dofry     dofrz
         2         0         1         1         1         1         1         1
*SET_NODE_LIST
$#     sid       da1       da2       da3       da4    solver      
         2       0.0       0.0       0.0       0.0MECH
$#    nid1      nid2      nid3      nid4      nid5      nid6      nid7      nid8
        57       107       108       109       110       111       112       113
       114       115       116         0         0         0         0         0
$
$
$$$$$$$$$$$$$$$$$$$$$$$$$$$$$$$$$$$$$$$$$$$$$$$$$$$$$$$$$$$$$$$$$$$$$$$$$$$$$$$$
$                              CONTACT DEFINITIONS                             $
$$$$$$$$$$$$$$$$$$$$$$$$$$$$$$$$$$$$$$$$$$$$$$$$$$$$$$$$$$$$$$$$$$$$$$$$$$$$$$$$
$
*CONTACT_2D_AUTOMATIC_SINGLE_SURFACE_TITLE
$#     cid                                                                 title
         1                                                                      
$#    sids      sidm     sfact      freq        fs        fd        dc     membs
         5         0       1.0        50       0.0       0.0       0.0         6
$#  tbirth    tdeath       sos       som       nds       ndm       cof      init
       0.01.00000E20       1.0       1.0         0         0         0         0
$
*SET_PART_LIST
$#     sid       da1       da2       da3       da4    solver      
         5       0.0       0.0       0.0       0.0MECH
$#    pid1      pid2      pid3      pid4      pid5      pid6      pid7      pid8
         1         2         0         0         0         0         0         0
$
$
$
$$$$$$$$$$$$$$$$$$$$$$$$$$$$$$$$$$$$$$$$$$$$$$$$$$$$$$$$$$$$$$$$$$$$$$$$$$$$$$$$
$                              PARTS DEFINITIONS                               $
$$$$$$$$$$$$$$$$$$$$$$$$$$$$$$$$$$$$$$$$$$$$$$$$$$$$$$$$$$$$$$$$$$$$$$$$$$$$$$$$
$
$
*PART
$#                                                                         title
Part          1 for Mat         1 and Elem Type         1
$#     pid     secid       mid     eosid      hgid      grav    adpopt      tmid
         1         1         1         0         0         0         0         0
*SECTION_SHELL
$#   secid    elform      shrf       nip     propt   qr/irid     icomp     setyp
         1        13       1.0         4       1.0         0         0         1
$#      t1        t2        t3        t4      nloc     marea      idof    edgset
       0.0       0.0       0.0       0.0       0.0       0.0       0.0         0
$
$
$$$$$$$$$$$$$$$$$$$$$$$$$$$$$$$$$$$$$$$$$$$$$$$$$$$$$$$$$$$$$$$$$$$$$$$$$$$$$$$$
$                             MATERIAL DEFINITIONS                             $
$$$$$$$$$$$$$$$$$$$$$$$$$$$$$$$$$$$$$$$$$$$$$$$$$$$$$$$$$$$$$$$$$$$$$$$$$$$$$$$$
$
*MAT_ELASTIC
$#     mid        ro         e        pr        da        db  not used        
         1    7720.02.08000E11      0.28       0.0       0.0       0.0
$
*PART
$#                                                                         title
Part          2 for Mat         2 and Elem Type         1
$#     pid     secid       mid     eosid      hgid      grav    adpopt      tmid
         2         1         2         0         0         0         0         0
*MAT_USER_DEFINED_MATERIAL_MODELS
$#     mid        ro        mt       lmc       nhv    iortho     ibulk        ig
         2    1190.0        41         8       200         0         0         0
$#   ivect     ifail    itherm    ihyper      ieos      lmca    unused    unused
         0         1         0         0         0         0                    
$#      p1        p2        p3        p4        p5        p6        p7        p8
3.300000E9      0.35  700000006.40000E-6       200         1        83       582
*INITIAL_VELOCITY
$#    nsid    nsidex     boxid    irigid      icid    
         3         0         0         0         0
$#      vx        vy        vz       vxr       vyr       vzr   
       0.0    -130.0       0.0       0.0       0.0       0.0
$
$$$$$$$$$$$$$$$$$$$$$$$$$$$$$$$$$$$$$$$$$$$$$$$$$$$$$$$$$$$$$$$$$$$$$$$$$$$$$$$$
$                         INITIAL VELOCITY DEFINITIONS                         $
$$$$$$$$$$$$$$$$$$$$$$$$$$$$$$$$$$$$$$$$$$$$$$$$$$$$$$$$$$$$$$$$$$$$$$$$$$$$$$$$
$
*SET_NODE_LIST
$#     sid       da1       da2       da3       da4    solver      
         3       0.0       0.0       0.0       0.0MECH
$#    nid1      nid2      nid3      nid4      nid5      nid6      nid7      nid8
         1         2         3         4         5         6         7         8
         9        10        11        12        13        14        15        16
        17        18        19        20        21        22        23        24
        25        26        27        28        29        30        31        32
        33        34        35        36        37        38        39        40
        41        42        43        44        45        46        47        48
        49        50        51        52        53        54        55         0
$
$
$$$$$$$$$$$$$$$$$$$$$$$$$$$$$$$$$$$$$$$$$$$$$$$$$$$$$$$$$$$$$$$$$$$$$$$$$$$$$$$$
$                             ELEMENT DEFINITIONS                              $
$$$$$$$$$$$$$$$$$$$$$$$$$$$$$$$$$$$$$$$$$$$$$$$$$$$$$$$$$$$$$$$$$$$$$$$$$$$$$$$$
$
*ELEMENT_SHELL
$#   eid     pid      n1      n2      n3      n4      n5      n6      n7      n8
       1       1      45      55      47      47       0       0       0       0
       2       1      45      44      55      55       0       0       0       0
       3       1      40      54      41      41       0       0       0       0
       4       1      40      53      54      54       0       0       0       0
       5       1      38      53      39      39       0       0       0       0
       6       1      38      52      53      53       0       0       0       0
       7       1      36      52      37      37       0       0       0       0
       8       1      36      51      52      52       0       0       0       0
       9       1      42      55      43      43       0       0       0       0
      10       1      42      54      55      55       0       0       0       0
      11       1      34       2      19      19       0       0       0       0
      12       1      34      17       2       2       0       0       0       0
      13       1      27       1       3       3       0       0       0       0
      14       1      27      26       1       1       0       0       0       0
      15       1      55      54      48      48       0       0       0       0
      16       1      54      53      49      49       0       0       0       0
      17       1      53      52      50      50       0       0       0       0
      18       1      51      50      52      52       0       0       0       0
      19       1      50      49      53      53       0       0       0       0
      20       1      49      48      54      54       0       0       0       0
$ ... 562 like lines cut
$
$
$$$$$$$$$$$$$$$$$$$$$$$$$$$$$$$$$$$$$$$$$$$$$$$$$$$$$$$$$$$$$$$$$$$$$$$$$$$$$$$$
$                               NODE DEFINITIONS                               $
$$$$$$$$$$$$$$$$$$$$$$$$$$$$$$$$$$$$$$$$$$$$$$$$$$$$$$$$$$$$$$$$$$$$$$$$$$$$$$$$
$
*NODE
$#   nid               x               y               z      tc      rc  
       1             0.0          0.0101             0.0       0       0
       2             0.0          0.0201             0.0       0       0
       3    9.754516e-04       0.0101961             0.0       0       0
       4       0.0019134       0.0104806             0.0       0       0
       5       0.0027779       0.0109427             0.0       0       0
       6       0.0035355       0.0115645             0.0       0       0
       7       0.0041573       0.0123221             0.0       0       0
       8       0.0046194       0.0131866             0.0       0       0
       9       0.0049039       0.0141245             0.0       0       0
      10           0.005          0.0151             0.0       0       0
      11       0.0049039       0.0160755             0.0       0       0
      12       0.0046194       0.0170134             0.0       0       0
      13       0.0041573       0.0178779             0.0       0       0
      14       0.0035355       0.0186355             0.0       0       0
      15       0.0027779       0.0192573             0.0       0       0
      16       0.0019134       0.0197194             0.0       0       0
      17    9.754516e-04       0.0200039             0.0       0       0
      18             0.0          0.0151             0.0       0       0
      19             0.0          0.0191             0.0       0       0
      20             0.0          0.0181             0.0       0       0
$ ... 596 like lines cut
*END
